LTspice 24.0.12 for Windows
Circuit: * C:\users\vito\Documents\facu\4y\1Q\tps\labo3\practica1\SnH.asc
Start Time: Mon Mar 17 12:53:57 2025
Warning: Multiple definitions of model "pnp1" Type: BJT
Warning: Multiple definitions of model "npn1" Type: BJT
Error on line 52 : .model u12:d1 d is=923.17e-18 rs=10 cjo=1.0000e-12 m=.3333 vj=.75  isr=100.00e-12 bv=35.357 ibv=10u tt=5.0000e-9*
	* Unrecognized parameter "*" -- ignored
Error on line 52 : .model u10:d1 d is=923.17e-18 rs=10 cjo=1.0000e-12 m=.3333 vj=.75  isr=100.00e-12 bv=35.357 ibv=10u tt=5.0000e-9*
	* Unrecognized parameter "*" -- ignored
solver = Normal
Maximum thread count: 8
tnom = 27
temp = 27
method = modified trap
Direct Newton iteration failed to find .op point.  (Use ".option noopiter" to skip.)
Starting Gmin stepping
Gmin = 10
vernier = 0.5
vernier = 0.25
vernier = 0.125
Gmin = 5.35425
vernier = 0.0625
vernier = 0.03125
vernier = 0.015625
vernier = 0.0078125
Gmin = 5.15175
vernier = 0.00390625
vernier = 0.00195312
vernier = 0.000976562
vernier = 0.000488281
Gmin = 5.14045
Gmin = 0
Gmin stepping succeeded in finding the operating point.

Total elapsed time: 3.040 seconds.

