LTspice 24.0.12 for Windows
Circuit: * C:\users\vito\Documents\facu\4y\1Q\tps\assd\tp1\spice\ckt_tp1.asc
Start Time: Mon Apr  7 17:06:23 2025
solver = Normal
Maximum thread count: 8



Early termination of direct N-R iteration.
Direct Newton iteration failed to find .op point.  (Use ".option noopiter" to skip.)
Starting Gmin stepping
Gmin = 10
vernier = 0.5
vernier = 0.25
vernier = 0.125
Gmin = 5.5165
vernier = 0.0625
vernier = 0.03125
vernier = 0.015625
vernier = 0.0078125
Gmin = 5.49501
vernier = 0.00390625
vernier = 0.00195312
vernier = 0.000976562
vernier = 0.000488281
Gmin = 5.50104
Gmin = 0
Gmin stepping succeeded in finding the operating point.

.step rv=455



.step rv=575



.step rv=695
tnom = 27
temp = 27
method = modified trap
.step rv=800
Total elapsed time: 2.691 seconds.

