LTspice 24.0.12 for Windows
Circuit: * C:\users\vito\Documents\facu\4y\1Q\tps\assd\tp1\spice\ckt_tp1.asc
Start Time: Wed Apr  9 21:30:53 2025
solver = Normal
Maximum thread count: 8
tnom = 27
temp = 27
method = modified trap
Early termination of direct N-R iteration.
Direct Newton iteration failed to find .op point.  (Use ".option noopiter" to skip.)
Starting Gmin stepping
Gmin = 10
vernier = 0.5
vernier = 0.25
vernier = 0.125
Gmin = 5.49741
vernier = 0.0625
vernier = 0.03125
vernier = 0.015625
vernier = 0.0078125
Gmin = 5.51716
vernier = 0.00390625
vernier = 0.00195312
vernier = 0.000976562
vernier = 0.000488281
Gmin = 5.50104
Gmin = 0
Gmin stepping failed

Starting source stepping with srcstepmethod=0
Source Step = 3.0303%
Source Step = 33.3333%
vernier = 0.25
Source Step = 37.8788%
Source Step = 45.4545%
Source Step = 53.0303%
Source Step = 60.6061%
Source Step = 68.1818%
vernier = 0.375
Source Step = 79.1667%
Source Step = 90.5303%
Source stepping succeeded in finding the operating point.

Heightened Def Con from 2.85537e-06 ++++++++++++++++++to 2.85537e-06
Heightened Def Con from 1.52772e-05 +++++++++++to 1.52772e-05
Heightened Def Con from 1.52772e-05 +++++++++++to 1.52772e-05
Heightened Def Con from 1.52772e-05 +++++++++++to 1.52772e-05
Heightened Def Con from 1.52825e-05 ++++++++to 1.52825e-05
Heightened Def Con from 1.52825e-05 to 1.52825e-05
Heightened Def Con from 1.84051e-05 +++++++++++++++to 1.84063e-05
Heightened Def Con from 2.75431e-05 to 2.75431e-05
Heightened Def Con from 2.75431e-05 to 2.75431e-05
Heightened Def Con from 2.75431e-05 to 2.75431e-05
Heightened Def Con from 2.75431e-05 to 2.75431e-05
Heightened Def Con from 3.97918e-05 ++++++++++++++++++to 3.97929e-05
Heightened Def Con from 6.61608e-05 to 6.61608e-05
Heightened Def Con from 6.61608e-05 +to 6.61608e-05
Heightened Def Con from 6.61608e-05 +++++++++++++++++++++to 6.6161e-05
Heightened Def Con from 6.6161e-05 to 6.61611e-05
Heightened Def Con from 6.61612e-05 to 6.61613e-05
Heightened Def Con from 6.61615e-05 to 6.61675e-05
Heightened Def Con from 7.83744e-05 to 7.83744e-05
Heightened Def Con from 7.83744e-05 +to 7.83744e-05
Heightened Def Con from 7.83744e-05 ++to 7.83744e-05
Heightened Def Con from 7.83744e-05 ++to 7.83744e-05
Heightened Def Con from 7.83744e-05 +++to 7.83744e-05
Heightened Def Con from 7.83744e-05 +++to 7.83744e-05
Heightened Def Con from 7.83744e-05 ++++to 7.83744e-05
Heightened Def Con from 7.83744e-05 +to 7.83744e-05
Heightened Def Con from 7.83744e-05 +++++to 7.83744e-05
Heightened Def Con from 7.83744e-05 +++++to 7.83744e-05
Heightened Def Con from 7.83744e-05 +++++to 7.83744e-05
Heightened Def Con from 7.83744e-05 +++++to 7.83744e-05
Heightened Def Con from 7.83744e-05 +++++to 7.83744e-05
Heightened Def Con from 7.83744e-05 ++++++to 7.83744e-05
Heightened Def Con from 7.83744e-05 ++++++to 7.83744e-05
Heightened Def Con from 7.83744e-05 ++++++to 7.83744e-05
Heightened Def Con from 7.83744e-05 ++++++to 7.83744e-05
Heightened Def Con from 7.83744e-05 +++++++to 7.83744e-05
Heightened Def Con from 7.83744e-05 +++++++to 7.83744e-05
Heightened Def Con from 7.83744e-05 +++++++to 7.83744e-05
Heightened Def Con from 7.83744e-05 +++++++to 7.83744e-05
Heightened Def Con from 7.83744e-05 +++++++to 7.83744e-05
Heightened Def Con from 7.83744e-05 +++++++to 7.83744e-05
Heightened Def Con from 7.83744e-05 +++++++to 7.83744e-05
Heightened Def Con from 7.83744e-05 +++++++to 7.83744e-05
Heightened Def Con from 7.83744e-05 ++++++++to 7.83744e-05
Heightened Def Con from 7.83744e-05 ++++++++to 7.83744e-05
Heightened Def Con from 7.83744e-05 ++++++++to 7.83744e-05
Heightened Def Con from 7.83744e-05 ++++++++to 7.83744e-05
Heightened Def Con from 7.83744e-05 ++++++++to 7.83744e-05
Heightened Def Con from 7.83744e-05 ++++++++to 7.83744e-05
Heightened Def Con from 7.83744e-05 ++++++++to 7.83744e-05
Heightened Def Con from 7.83744e-05 ++++++++to 7.83744e-05
Heightened Def Con from 7.83744e-05 +++++++++to 7.83744e-05
Heightened Def Con from 7.83744e-05 +++++++++to 7.83744e-05
Heightened Def Con from 7.83744e-05 +++++++++to 7.83744e-05
Heightened Def Con from 7.83744e-05 +++++++++to 7.83744e-05
Heightened Def Con from 7.83744e-05 +++++++++to 7.83744e-05
Heightened Def Con from 7.83744e-05 ++++++++++to 7.83744e-05
Heightened Def Con from 7.83744e-05 ++++++++++to 7.83744e-05
Heightened Def Con from 7.83744e-05 ++++++++++to 7.83744e-05
Heightened Def Con from 7.83744e-05 ++++++++++to 7.83744e-05
Heightened Def Con from 7.83744e-05 ++++++++++to 7.83744e-05
Heightened Def Con from 7.83744e-05 ++++++++++to 7.83744e-05
Heightened Def Con from 7.83744e-05 ++++++++++to 7.83744e-05
Heightened Def Con from 7.83744e-05 ++++++++++to 7.83744e-05
Heightened Def Con from 7.83744e-05 ++++++++++to 7.83744e-05
Heightened Def Con from 7.83744e-05 ++++++++++to 7.83744e-05
Heightened Def Con from 7.83744e-05 ++++++++++to 7.83744e-05
Heightened Def Con from 7.83744e-05 ++++++++++to 7.83744e-05
Heightened Def Con from 7.83744e-05 ++++++++++to 7.83744e-05
Heightened Def Con from 7.83744e-05 +++++++++++to 7.83744e-05
Heightened Def Con from 7.83744e-05 +++++++++++to 7.83744e-05
Heightened Def Con from 7.83744e-05 +++++++++++to 7.83744e-05
Heightened Def Con from 7.83744e-05 +++++++++++to 7.83744e-05
Heightened Def Con from 7.83744e-05 +++++++++++to 7.83744e-05
Heightened Def Con from 7.83744e-05 +++++++++++to 7.83744e-05
Heightened Def Con from 7.83744e-05 ++++++++++++to 7.83744e-05
Heightened Def Con from 7.83744e-05 ++++++++++to 7.83745e-05
Heightened Def Con from 7.83748e-05 ++to 7.83748e-05
Heightened Def Con from 7.83748e-05 +++to 7.83748e-05
Heightened Def Con from 7.83748e-05 ++++to 7.83748e-05
Heightened Def Con from 7.83748e-05 ++++to 7.83748e-05
Heightened Def Con from 7.83748e-05 ++++to 7.83748e-05
Heightened Def Con from 7.83748e-05 ++++to 7.83748e-05
Heightened Def Con from 7.83748e-05 ++++++to 7.83748e-05
Heightened Def Con from 7.83748e-05 +++++to 7.83748e-05
Heightened Def Con from 7.83748e-05 ++++++to 7.83748e-05
Heightened Def Con from 7.83748e-05 ++++++to 7.83748e-05
Heightened Def Con from 7.83748e-05 ++++++to 7.83748e-05
Heightened Def Con from 7.83748e-05 ++++++to 7.83748e-05
Heightened Def Con from 7.83748e-05 ++++++to 7.83748e-05
Heightened Def Con from 7.83748e-05 +++++++to 7.83748e-05
Heightened Def Con from 7.83748e-05 +++++++to 7.83748e-05
Heightened Def Con from 7.83748e-05 +++++++to 7.83748e-05
Heightened Def Con from 7.83748e-05 ++++++++to 7.83748e-05
Heightened Def Con from 7.83748e-05 ++++++++to 7.83748e-05
Heightened Def Con from 7.83748e-05 ++++++++to 7.83748e-05
Heightened Def Con from 7.83748e-05 ++++++++to 7.83748e-05
Heightened Def Con from 7.83748e-05 ++++++++to 7.83748e-05
Heightened Def Con from 7.83748e-05 ++++++++to 7.83748e-05
Heightened Def Con from 7.83748e-05 ++++++++to 7.83748e-05
Heightened Def Con from 7.83748e-05 +++++++++to 7.83748e-05
Heightened Def Con from 7.83748e-05 +++++++++to 7.83748e-05
Heightened Def Con from 7.83748e-05 +++++++++to 7.83748e-05
Heightened Def Con from 7.83748e-05 +++++++++to 7.83748e-05
Heightened Def Con from 7.83748e-05 +++++++++to 7.83748e-05
Heightened Def Con from 7.83748e-05 +++++++++to 7.83748e-05
Heightened Def Con from 7.83748e-05 ++++++++++to 7.83748e-05
Heightened Def Con from 7.83748e-05 ++++++++++to 7.83748e-05
Heightened Def Con from 7.83748e-05 ++++++++++to 7.83748e-05
Heightened Def Con from 7.83748e-05 ++++++++++to 7.83748e-05
Heightened Def Con from 7.83748e-05 ++++++++++to 7.83748e-05
Heightened Def Con from 7.83748e-05 ++++++++++to 7.83748e-05
Heightened Def Con from 7.83748e-05 +++++++++++to 7.83748e-05
Heightened Def Con from 7.83748e-05 +++++++++++to 7.83748e-05
Heightened Def Con from 7.83748e-05 +++++++++++to 7.83748e-05
Heightened Def Con from 7.83748e-05 +++++++++++to 7.83748e-05
Heightened Def Con from 7.83748e-05 +++++++++++to 7.83748e-05
Heightened Def Con from 7.83748e-05 +++++++++++to 7.83748e-05
Heightened Def Con from 7.83748e-05 +++++++++++to 7.83748e-05
Heightened Def Con from 7.83748e-05 +++++++++++to 7.83748e-05
Heightened Def Con from 7.83748e-05 +++++++++++to 7.83748e-05
Heightened Def Con from 7.83748e-05 +++++++++++to 7.83748e-05
Heightened Def Con from 7.83748e-05 +++++++++++to 7.83748e-05
Heightened Def Con from 7.83748e-05 +++++++++++to 7.83748e-05
Heightened Def Con from 7.83748e-05 +++++++++++to 7.83748e-05
Heightened Def Con from 7.83748e-05 +++++++++++to 7.83748e-05
Heightened Def Con from 7.83748e-05 +++++++++++to 7.83748e-05
Heightened Def Con from 7.83748e-05 ++++++++++++to 7.83748e-05
Heightened Def Con from 7.83748e-05 ++++++++++++to 7.83748e-05
Heightened Def Con from 7.83748e-05 ++++++++++++to 7.83748e-05
Heightened Def Con from 7.83748e-05 ++++++++++++to 7.83748e-05
Heightened Def Con from 7.83748e-05 ++++++++++++to 7.83748e-05
Heightened Def Con from 7.83748e-05 ++++++++++++to 7.83748e-05
Heightened Def Con from 7.83748e-05 ++++++++++++to 7.83748e-05
Heightened Def Con from 7.83748e-05 ++++++++++++to 7.83748e-05
Heightened Def Con from 7.83748e-05 ++++++++++++to 7.83748e-05
Heightened Def Con from 7.83748e-05 ++++++++++++to 7.83748e-05
Heightened Def Con from 7.83748e-05 ++++++++++++to 7.83748e-05
Heightened Def Con from 7.83748e-05 ++++++++++++to 7.83748e-05
Heightened Def Con from 7.83748e-05 ++++++++++++to 7.83748e-05
Heightened Def Con from 7.83748e-05 ++++++++++++to 7.83748e-05
Heightened Def Con from 7.83748e-05 +++++++to 7.83748e-05
Heightened Def Con from 7.83748e-05 to 7.83748e-05
Heightened Def Con from 7.83748e-05 to 7.83759e-05
Heightened Def Con from 7.96287e-05 to 7.96287e-05
Heightened Def Con from 8.88338e-05 ++++++++++++++++++++to 8.88339e-05
Heightened Def Con from 8.88339e-05 to 8.8835e-05
Heightened Def Con from 9.06962e-05 to 9.06962e-05
Heightened Def Con from 9.06963e-05 to 9.06963e-05
Heightened Def Con from 9.06963e-05 +to 9.06963e-05
Heightened Def Con from 9.06963e-05 ++to 9.06963e-05
Heightened Def Con from 9.06963e-05 +++to 9.06963e-05
Heightened Def Con from 9.06963e-05 +++to 9.06963e-05
Heightened Def Con from 9.06963e-05 +++to 9.06963e-05
Heightened Def Con from 9.06963e-05 to 9.06963e-05
Heightened Def Con from 9.06965e-05 to 9.06965e-05
Heightened Def Con from 9.06965e-05 ++to 9.06965e-05
Heightened Def Con from 9.06965e-05 ++to 9.06965e-05
Heightened Def Con from 9.06965e-05 +++to 9.06965e-05
Heightened Def Con from 9.06965e-05 ++++to 9.06965e-05
Heightened Def Con from 9.06965e-05 ++++to 9.06965e-05
Heightened Def Con from 9.06965e-05 ++++to 9.06965e-05
Heightened Def Con from 9.06965e-05 +++++to 9.06965e-05
Heightened Def Con from 9.06965e-05 +++++to 9.06965e-05
Heightened Def Con from 9.06965e-05 +++++to 9.06965e-05
Heightened Def Con from 9.06965e-05 +++++to 9.06965e-05
Heightened Def Con from 9.06965e-05 +++++to 9.06965e-05
Heightened Def Con from 9.06965e-05 +++++to 9.06965e-05
Heightened Def Con from 9.06965e-05 ++++++to 9.06965e-05
Heightened Def Con from 9.06965e-05 ++++++to 9.06965e-05
Heightened Def Con from 9.06965e-05 ++++++to 9.06965e-05
Heightened Def Con from 9.06965e-05 ++++++to 9.06965e-05
Heightened Def Con from 9.06965e-05 to 9.06976e-05
Heightened Def Con from 0.000113435 ++++++++++++++++++++to 0.000113435
Heightened Def Con from 0.000116561 +++++++++++++++++++to 0.000116562
Heightened Def Con from 0.000127602 ++++++++++++++++++to 0.000127603
Heightened Def Con from 0.000127603 ++++++++++++++++++++to 0.000127609
Heightened Def Con from 0.000127609 +++to 0.000127609
Heightened Def Con from 0.000127609 to 0.000127609
Heightened Def Con from 0.000137921 +++++++++++++++++++to 0.000137922
Heightened Def Con from 0.000137922 +++++++++++++++++++to 0.000137923
Heightened Def Con from 0.000150228 +++++++++++++++++++to 0.000150229
Heightened Def Con from 0.000164504 to 0.000164504
Heightened Def Con from 0.000164504 +++++++++++++++++++to 0.000164505
Heightened Def Con from 0.000164505 to 0.000164511
Heightened Def Con from 0.000176904 ++to 0.000176904
Heightened Def Con from 0.000176904 +++to 0.000176904
Heightened Def Con from 0.000176904 +++to 0.000176904
Heightened Def Con from 0.000176904 +++to 0.000176904
Heightened Def Con from 0.000176904 ++++to 0.000176904
Heightened Def Con from 0.000176904 ++++to 0.000176904
Heightened Def Con from 0.000176904 ++++to 0.000176904
Heightened Def Con from 0.000176904 +++++to 0.000176904
Heightened Def Con from 0.000176904 +++++to 0.000176904
Heightened Def Con from 0.000176904 +++++to 0.000176904
Heightened Def Con from 0.000176904 ++++++to 0.000176904
Heightened Def Con from 0.000176904 ++++++to 0.000176904
Heightened Def Con from 0.000176904 ++++++to 0.000176904
Heightened Def Con from 0.000176904 ++++++to 0.000176904
Heightened Def Con from 0.000176904 ++++++to 0.000176904
Heightened Def Con from 0.000176904 ++++++to 0.000176904
Heightened Def Con from 0.000176904 +++++++to 0.000176904
Heightened Def Con from 0.000176904 +++++++to 0.000176904
Heightened Def Con from 0.000176904 +++++++to 0.000176904
Heightened Def Con from 0.000176904 +++++++to 0.000176904
Heightened Def Con from 0.000176904 +++++++to 0.000176904
Heightened Def Con from 0.000176904 +++++++to 0.000176904
Heightened Def Con from 0.000176904 +++++++to 0.000176904
Heightened Def Con from 0.000176904 +++++++to 0.000176904
Heightened Def Con from 0.000176904 +++++++to 0.000176904
Heightened Def Con from 0.000176904 +++++++to 0.000176904
Heightened Def Con from 0.000176904 +++++++to 0.000176904
Heightened Def Con from 0.000176904 ++++++++to 0.000176904
Heightened Def Con from 0.000176904 ++++++++to 0.000176904
Heightened Def Con from 0.000176904 ++++++++to 0.000176904
Heightened Def Con from 0.000176904 ++++++++to 0.000176904
Heightened Def Con from 0.000176904 +++++++++to 0.000176904
Heightened Def Con from 0.000176904 +++++++++to 0.000176904
Heightened Def Con from 0.000176904 +++++++++to 0.000176904
Heightened Def Con from 0.000176904 +++++++++to 0.000176904
Heightened Def Con from 0.000176904 ++++++++to 0.000176904
Heightened Def Con from 0.000176904 +++++++++to 0.000176904
Heightened Def Con from 0.000176904 +++++++++to 0.000176904
Heightened Def Con from 0.000176904 +++++++++to 0.000176904
Heightened Def Con from 0.000176904 +++++++++to 0.000176904
Heightened Def Con from 0.000176904 +++++++++to 0.000176904
Heightened Def Con from 0.000176904 +++++++++to 0.000176904
Heightened Def Con from 0.000176904 +++++++++to 0.000176904
Heightened Def Con from 0.000176904 ++++++++++to 0.000176904
Heightened Def Con from 0.000176904 ++++++++++to 0.000176904
Heightened Def Con from 0.000176904 ++++++++++to 0.000176904
Heightened Def Con from 0.000176904 ++++++++++to 0.000176904
Heightened Def Con from 0.000176904 ++++++++++to 0.000176904
Heightened Def Con from 0.000176904 ++++++++++to 0.000176904
Heightened Def Con from 0.000176904 ++++++++++to 0.000176904
Heightened Def Con from 0.000176904 ++++++++++to 0.000176904
Heightened Def Con from 0.000176904 ++++++++++to 0.000176904
Heightened Def Con from 0.000176904 ++++++++++to 0.000176904
Heightened Def Con from 0.000176904 ++++++++++to 0.000176904
Heightened Def Con from 0.000176904 ++++++++++to 0.000176904
Heightened Def Con from 0.000176904 ++++++++++to 0.000176904
Heightened Def Con from 0.000176904 ++++++++++to 0.000176904
Heightened Def Con from 0.000176904 ++++++++++to 0.000176904
Heightened Def Con from 0.000176904 ++++++++++to 0.000176904
Heightened Def Con from 0.000176904 ++++++++++to 0.000176904
Heightened Def Con from 0.000176904 ++++++++++to 0.000176904
Heightened Def Con from 0.000176904 ++++++++++to 0.000176904
Heightened Def Con from 0.000176904 ++++++++++to 0.000176904
Heightened Def Con from 0.000176904 ++++++++++to 0.000176904
Heightened Def Con from 0.000176904 ++++++++++to 0.000176904
Heightened Def Con from 0.000176904 +++++++++++to 0.000176904
Heightened Def Con from 0.000176904 +++++++++++to 0.000176904
Heightened Def Con from 0.000176904 +++++++++++to 0.000176904
Heightened Def Con from 0.000176904 +++++++++++to 0.000176904
Heightened Def Con from 0.000176904 +++++++++++to 0.000176904
Heightened Def Con from 0.000176904 +++++++++++to 0.000176904
Heightened Def Con from 0.000176904 +++++++++++to 0.000176904
Heightened Def Con from 0.000176904 +++++++++++to 0.000176904
Heightened Def Con from 0.000176904 +++++++++++to 0.000176904
Heightened Def Con from 0.000176904 +++++++++++to 0.000176904
Heightened Def Con from 0.000176904 +++++++++++to 0.000176904
Heightened Def Con from 0.000176904 +++++++++++to 0.000176904
Heightened Def Con from 0.000176904 ++++++++++++to 0.000176904
Heightened Def Con from 0.000176904 ++++++++++++to 0.000176904
Heightened Def Con from 0.000176904 ++++++++++++to 0.000176904
Heightened Def Con from 0.000176904 ++++++++++++to 0.000176904
Heightened Def Con from 0.000176904 ++++++++++++to 0.000176904
Heightened Def Con from 0.000176904 ++++++++++++to 0.000176904
Heightened Def Con from 0.000176904 ++++++++++++to 0.000176904
Heightened Def Con from 0.000176904 ++++++++++++to 0.000176904
Heightened Def Con from 0.000176904 ++++++++++++to 0.000176904
Heightened Def Con from 0.000176904 ++++++++++++to 0.000176904
Heightened Def Con from 0.000176904 ++++++++++++to 0.000176904
Heightened Def Con from 0.000176904 ++++++++++++to 0.000176904
Heightened Def Con from 0.000176904 +++++++++++++to 0.000176904
Heightened Def Con from 0.000176904 +++++++++++++to 0.000176904
Heightened Def Con from 0.000176904 ++++++++++to 0.000176905
Heightened Def Con from 0.000199627 ++++++++++++++++++++to 0.000199627
Heightened Def Con from 0.000199628 ++++++++++++++++++++to 0.000199629
Heightened Def Con from 0.000199629 to 0.000199635
Heightened Def Con from 0.000211928 ++++++++++++++++++++to 0.000211929
Heightened Def Con from 0.000224324 ++++++++++++++++++++to 0.000224324
Heightened Def Con from 0.000224324 to 0.00022433
Heightened Def Con from 0.000236732 +++++++++++++++++++to 0.000236733
Heightened Def Con from 0.000249093 +++++++++++++++++++to 0.000249094
Heightened Def Con from 0.000273762 +++++++++++++++++to 0.000273763
Heightened Def Con from 0.000275636 +to 0.000275636
Heightened Def Con from 0.000275636 ++to 0.000275636
Heightened Def Con from 0.000275636 +++to 0.000275636
Heightened Def Con from 0.000275636 +++to 0.000275636
Heightened Def Con from 0.000275636 ++++to 0.000275636
Heightened Def Con from 0.000275636 +++++to 0.000275636
Heightened Def Con from 0.000275636 +++++to 0.000275636
Heightened Def Con from 0.000275636 +++++to 0.000275636
Heightened Def Con from 0.000275636 +++++to 0.000275636
Heightened Def Con from 0.000275636 +++++to 0.000275636
Heightened Def Con from 0.000275636 +++++to 0.000275636
Heightened Def Con from 0.000275636 ++++++to 0.000275636
Heightened Def Con from 0.000275636 ++++++to 0.000275636
Heightened Def Con from 0.000275636 ++++++to 0.000275636
Heightened Def Con from 0.000275636 ++++++to 0.000275636
Heightened Def Con from 0.000275636 +++++++to 0.000275636
Heightened Def Con from 0.000275636 +++++++to 0.000275636
Heightened Def Con from 0.000275636 +++++++to 0.000275636
Heightened Def Con from 0.000275636 +++++++to 0.000275636
Heightened Def Con from 0.000275636 +++++++to 0.000275636
Heightened Def Con from 0.000275636 +++++++to 0.000275636
Heightened Def Con from 0.000275636 +++++++to 0.000275636
Heightened Def Con from 0.000275636 +++++++to 0.000275636
Heightened Def Con from 0.000275636 ++++++++to 0.000275636
Heightened Def Con from 0.000275636 ++++++++to 0.000275636
Heightened Def Con from 0.000275636 +++++++++to 0.000275636
Heightened Def Con from 0.000275636 +++++++++to 0.000275636
Heightened Def Con from 0.000275636 +++++++++to 0.000275636
Heightened Def Con from 0.000275636 +++++++++to 0.000275636
Heightened Def Con from 0.000275636 +++++++++to 0.000275636
Heightened Def Con from 0.000275636 +++++++++to 0.000275636
Heightened Def Con from 0.000275636 +++++++++to 0.000275636
Heightened Def Con from 0.000275636 +++++++++to 0.000275636
Heightened Def Con from 0.000275636 +++++++++to 0.000275636
Heightened Def Con from 0.000275636 ++++++++++to 0.000275636
Heightened Def Con from 0.000275636 ++++++++++to 0.000275636
Heightened Def Con from 0.000275636 ++++++++++to 0.000275636
Heightened Def Con from 0.000275636 ++++++++++to 0.000275636
Heightened Def Con from 0.000275636 ++++++++++to 0.000275636
Heightened Def Con from 0.000275636 ++++++++++to 0.000275636
Heightened Def Con from 0.000275636 ++++++++++to 0.000275636
Heightened Def Con from 0.000275636 ++++++++++to 0.000275636
Heightened Def Con from 0.000275636 ++++++++++to 0.000275636
Heightened Def Con from 0.000275636 ++++++++++to 0.000275636
Heightened Def Con from 0.000275636 ++++++++++to 0.000275636
Heightened Def Con from 0.000275636 ++++++++++to 0.000275636
Heightened Def Con from 0.000275636 ++++++++++to 0.000275636
Heightened Def Con from 0.000275636 ++++++++++to 0.000275636
Heightened Def Con from 0.000275636 ++++++++++to 0.000275636
Heightened Def Con from 0.000275636 ++++++++++to 0.000275636
Heightened Def Con from 0.000275636 ++++++++++to 0.000275636
Heightened Def Con from 0.000275636 ++++++++++to 0.000275636
Heightened Def Con from 0.000275636 ++++++++++to 0.000275636
Heightened Def Con from 0.000275636 ++++++++++to 0.000275636
Heightened Def Con from 0.000275636 +++++++++++to 0.000275636
Heightened Def Con from 0.000275636 +++++++++++to 0.000275636
Heightened Def Con from 0.000275636 +++++++++++to 0.000275636
Heightened Def Con from 0.000275636 +++++++++++to 0.000275636
Heightened Def Con from 0.000275636 +++++++++++to 0.000275636
Heightened Def Con from 0.000275636 +++++++++++to 0.000275636
Heightened Def Con from 0.000275636 +++++++++++to 0.000275636
Heightened Def Con from 0.000275636 +++++++++++to 0.000275636
Heightened Def Con from 0.000275636 +++++++++++to 0.000275636
Heightened Def Con from 0.000275636 +++++++++++to 0.000275636
Heightened Def Con from 0.000275636 +++++++++++to 0.000275636
Heightened Def Con from 0.000275636 +++++++++++to 0.000275636
Heightened Def Con from 0.000275636 +++++++++++to 0.000275636
Heightened Def Con from 0.000275636 +++++++++++to 0.000275636
Heightened Def Con from 0.000275636 +++++++++++to 0.000275636
Heightened Def Con from 0.000275636 +++++++++++to 0.000275636
Heightened Def Con from 0.000275636 ++++++++++++to 0.000275636
Heightened Def Con from 0.000275636 +++++++++to 0.000275636
Heightened Def Con from 0.000275637 ++to 0.000275637
Heightened Def Con from 0.000275637 +to 0.000275637
Heightened Def Con from 0.000275637 +++to 0.000275637
Heightened Def Con from 0.000275637 ++++to 0.000275637
Heightened Def Con from 0.000275637 +++++to 0.000275637
Heightened Def Con from 0.000275637 +++++to 0.000275637
Heightened Def Con from 0.000275637 +++++to 0.000275637
Heightened Def Con from 0.000275637 ++++++to 0.000275637
Heightened Def Con from 0.000275637 ++++++to 0.000275637
Heightened Def Con from 0.000275637 ++++++to 0.000275637
Heightened Def Con from 0.000275637 ++to 0.000275637
Heightened Def Con from 0.000275637 ++to 0.000275637
Heightened Def Con from 0.000275637 ++to 0.000275637
Heightened Def Con from 0.000275637 ++to 0.000275637
Heightened Def Con from 0.000275637 ++to 0.000275637
Heightened Def Con from 0.000275637 ++++++to 0.000275637
Heightened Def Con from 0.000275637 to 0.000275637
Heightened Def Con from 0.000275637 +++to 0.000275637
Heightened Def Con from 0.000275637 +++++to 0.000275637
Heightened Def Con from 0.000275637 +++++to 0.000275637
Heightened Def Con from 0.000275637 ++++++to 0.000275637
Heightened Def Con from 0.000275637 ++++++to 0.000275637
Heightened Def Con from 0.000275637 ++++++to 0.000275637
Heightened Def Con from 0.000275637 ++++++to 0.000275637
Heightened Def Con from 0.000275637 ++++++to 0.000275637
Heightened Def Con from 0.000275637 +++++++to 0.000275637
Heightened Def Con from 0.000275637 +++++++to 0.000275637
Heightened Def Con from 0.000275637 +++++++to 0.000275637
Heightened Def Con from 0.000275637 +++++++to 0.000275637
Heightened Def Con from 0.000275637 +++++++to 0.000275637
Heightened Def Con from 0.000275637 +++++++to 0.000275637
Heightened Def Con from 0.000275637 +++++++to 0.000275637
Heightened Def Con from 0.000275637 ++++++++to 0.000275637
Heightened Def Con from 0.000275637 ++++++++to 0.000275637
Heightened Def Con from 0.000275637 ++++++++to 0.000275637
Heightened Def Con from 0.000275637 ++++++++to 0.000275637
Heightened Def Con from 0.000275637 ++++++++to 0.000275637
Heightened Def Con from 0.000275637 ++++++++to 0.000275637
Heightened Def Con from 0.000275637 ++++++++to 0.000275637
Heightened Def Con from 0.000275637 ++++++++to 0.000275637
Heightened Def Con from 0.000275637 ++++++++to 0.000275637
Heightened Def Con from 0.000275637 +++++++++to 0.000275637
Heightened Def Con from 0.000275637 +++++++++to 0.000275637
Heightened Def Con from 0.000275637 +++++++++to 0.000275637
Heightened Def Con from 0.000275637 +++++++++to 0.000275637
Heightened Def Con from 0.000275637 +++++++++to 0.000275637
Heightened Def Con from 0.000275637 +++++++++to 0.000275637
Heightened Def Con from 0.000275637 +++++++++to 0.000275637
Heightened Def Con from 0.000275637 +++++++++to 0.000275637
Heightened Def Con from 0.000275637 +++++++++to 0.000275637
Heightened Def Con from 0.000275637 ++++++++++to 0.000275637
Heightened Def Con from 0.000275637 ++++++++++to 0.000275637
Heightened Def Con from 0.000275637 ++++++++++to 0.000275637
Heightened Def Con from 0.000275637 ++++++++++to 0.000275637
Heightened Def Con from 0.000275637 ++++++++++to 0.000275637
Heightened Def Con from 0.000275637 ++++++++++to 0.000275637
Heightened Def Con from 0.000275637 ++++++++++to 0.000275637
Heightened Def Con from 0.000275637 ++++++++++to 0.000275637
Heightened Def Con from 0.000275637 ++++++++++to 0.000275637
Heightened Def Con from 0.000275637 ++++++++++to 0.000275637
Heightened Def Con from 0.000275637 +++++++++++to 0.000275637
Heightened Def Con from 0.000275637 +++++++++++to 0.000275637
Heightened Def Con from 0.000275637 +++++++++++to 0.000275637
Heightened Def Con from 0.000275637 +++++++++++to 0.000275637
Heightened Def Con from 0.000275637 +++++++++++to 0.000275637
Heightened Def Con from 0.000275637 +++++++++++to 0.000275637
Heightened Def Con from 0.000275637 +++++++++++to 0.000275637
Heightened Def Con from 0.000275637 +++++++++++to 0.000275637
Heightened Def Con from 0.000275637 +++++++++++to 0.000275637
Heightened Def Con from 0.000275637 +++++++++++to 0.000275637
Heightened Def Con from 0.000275637 +++++++++++to 0.000275637
Heightened Def Con from 0.000275637 +++++++++++to 0.000275637
Heightened Def Con from 0.000275637 +++++++++++to 0.000275637
Heightened Def Con from 0.000275637 +++++++++++to 0.000275637
Heightened Def Con from 0.000275637 +++++++++++to 0.000275637
Heightened Def Con from 0.000275637 +++++++++++to 0.000275637
Heightened Def Con from 0.000275637 +++++++++++to 0.000275637
Heightened Def Con from 0.000275637 +++++++++++to 0.000275637
Heightened Def Con from 0.000275637 +++++++++++to 0.000275637
Heightened Def Con from 0.000275637 +++++++++++to 0.000275637
Heightened Def Con from 0.000275637 ++++++++++++to 0.000275637
Heightened Def Con from 0.000275637 ++++++++++++to 0.000275637
Heightened Def Con from 0.000275637 ++++++++++++to 0.000275637
Heightened Def Con from 0.000275637 ++++++++++++to 0.000275637
Heightened Def Con from 0.000275637 ++++++++++++to 0.000275637
Heightened Def Con from 0.000275637 ++++++++++++to 0.000275637
Heightened Def Con from 0.000275637 ++++++++++++to 0.000275637
Heightened Def Con from 0.000275637 ++++++++++++to 0.000275637
Heightened Def Con from 0.000275637 ++++++++++++to 0.000275637
Heightened Def Con from 0.000275637 ++++++++++++to 0.000275637
Heightened Def Con from 0.000275637 ++++++++++++to 0.000275637
Heightened Def Con from 0.000275637 ++++++++++++to 0.000275637
Heightened Def Con from 0.000275637 ++++++++++++to 0.000275637
Heightened Def Con from 0.000275637 ++++++++++++to 0.000275637
Heightened Def Con from 0.000275637 ++++++++++++to 0.000275637
Heightened Def Con from 0.000275637 ++++++++++++to 0.000275637
Heightened Def Con from 0.000275637 ++++++++++++to 0.000275637
Heightened Def Con from 0.000275637 ++++++++++++to 0.000275637
Heightened Def Con from 0.000275637 ++++++++++++++to 0.000275637
Heightened Def Con from 0.000275637 +++++++++++++to 0.000275637
Heightened Def Con from 0.000275637 ++++++++++++to 0.000275638
Heightened Def Con from 0.000286093 ++++to 0.000286093
Heightened Def Con from 0.000286093 to 0.000286093
Heightened Def Con from 0.000287956 to 0.000287956
Heightened Def Con from 0.000287956 +to 0.000287956
Heightened Def Con from 0.000287956 +to 0.000287956
Heightened Def Con from 0.000287956 ++to 0.000287956
Heightened Def Con from 0.000287956 ++to 0.000287956
Heightened Def Con from 0.000287956 +++to 0.000287956
Heightened Def Con from 0.000287956 ++++to 0.000287956
Heightened Def Con from 0.000287956 ++++to 0.000287956
Heightened Def Con from 0.000287956 ++++to 0.000287956
Heightened Def Con from 0.000287956 ++++to 0.000287956
Heightened Def Con from 0.000287956 +++++to 0.000287956
Heightened Def Con from 0.000287956 +++++to 0.000287956
Heightened Def Con from 0.000287956 ++++++to 0.000287956
Heightened Def Con from 0.000287956 ++++++to 0.000287956
Heightened Def Con from 0.000287956 ++++++to 0.000287956
Heightened Def Con from 0.000287956 ++++++to 0.000287956
Heightened Def Con from 0.000287956 +++++++to 0.000287956
Heightened Def Con from 0.000287956 ++++++++to 0.000287956
Heightened Def Con from 0.000287956 ++++++++to 0.000287956
Heightened Def Con from 0.000287956 ++++++++to 0.000287956
Heightened Def Con from 0.000287956 ++++++++to 0.000287956
Heightened Def Con from 0.000287956 ++++++++to 0.000287956
Heightened Def Con from 0.000287956 ++++++++to 0.000287956
Heightened Def Con from 0.000287956 ++++++++to 0.000287956
Heightened Def Con from 0.000287956 ++++++++to 0.000287956
Heightened Def Con from 0.000287956 ++++++++to 0.000287956
Heightened Def Con from 0.000287956 ++++++++to 0.000287956
Heightened Def Con from 0.000287956 ++++++++to 0.000287956
Heightened Def Con from 0.000287956 ++++++++to 0.000287956
Heightened Def Con from 0.000287956 ++++++to 0.000287956
Heightened Def Con from 0.000287956 ++++++to 0.000287956
Heightened Def Con from 0.000287956 ++++++to 0.000287956
Heightened Def Con from 0.000287956 ++++++to 0.000287956
Heightened Def Con from 0.000287956 +++++++++to 0.000287956
Heightened Def Con from 0.000287956 +++++++++to 0.000287956
Heightened Def Con from 0.000287956 +++++++++to 0.000287956
Heightened Def Con from 0.000287956 +++++++++to 0.000287956
Heightened Def Con from 0.000287956 +++++++++to 0.000287956
Heightened Def Con from 0.000287956 +++++++++to 0.000287956
Heightened Def Con from 0.000287956 +++++++++to 0.000287956
Heightened Def Con from 0.000287956 +++++++++to 0.000287956
Heightened Def Con from 0.000287956 +++++++++to 0.000287956
Heightened Def Con from 0.000287956 +++++++++to 0.000287956
Heightened Def Con from 0.000287956 +++++++++to 0.000287956
Heightened Def Con from 0.000287956 +++++++++to 0.000287956
Heightened Def Con from 0.000287956 +++++++++to 0.000287956
Heightened Def Con from 0.000287956 +++++++++to 0.000287956
Heightened Def Con from 0.000287956 +++++++++to 0.000287956
Heightened Def Con from 0.000287956 ++++++++++to 0.000287956
Heightened Def Con from 0.000287956 ++++++++++to 0.000287956
Heightened Def Con from 0.000287956 ++++++++++to 0.000287956
Heightened Def Con from 0.000287956 ++++++++++to 0.000287956
Heightened Def Con from 0.000287956 ++++++++++to 0.000287956
Heightened Def Con from 0.000287956 ++++++++++to 0.000287956
Heightened Def Con from 0.000287956 ++++++++++to 0.000287956
Heightened Def Con from 0.000287956 ++++++++++to 0.000287956
Heightened Def Con from 0.000287956 ++++++++++to 0.000287956
Heightened Def Con from 0.000287956 ++++++++++to 0.000287956
Heightened Def Con from 0.000287956 ++++++++++to 0.000287956
Heightened Def Con from 0.000287956 ++++++++++to 0.000287956
Heightened Def Con from 0.000287956 ++++++++++to 0.000287956
Heightened Def Con from 0.000287956 ++++++++++to 0.000287956
Heightened Def Con from 0.000287956 +++++++++++to 0.000287956
Heightened Def Con from 0.000287956 +++++++++++to 0.000287956
Heightened Def Con from 0.000287956 +++++++++++to 0.000287956
Heightened Def Con from 0.000287956 +++++++++++to 0.000287956
Heightened Def Con from 0.000287956 +++++++++++to 0.000287956
Heightened Def Con from 0.000287956 +++++++++++to 0.000287956
Heightened Def Con from 0.000287956 +++++++++++to 0.000287956
Heightened Def Con from 0.000287956 +++++++++++to 0.000287956
Heightened Def Con from 0.000287956 +++++++++++to 0.000287956
Heightened Def Con from 0.000287956 +++++++++++to 0.000287956
Heightened Def Con from 0.000287956 ++++++++++++to 0.000287956
Heightened Def Con from 0.000287956 ++++++++++++to 0.000287956
Heightened Def Con from 0.000287956 ++++++++++++to 0.000287956
Heightened Def Con from 0.000287956 ++++++++++++to 0.000287956
Heightened Def Con from 0.000287956 ++++++++++++to 0.000287956
Heightened Def Con from 0.000287956 ++++++++++++to 0.000287956
Heightened Def Con from 0.000287956 ++++++++++++to 0.000287956
Heightened Def Con from 0.000287956 ++++++++++++to 0.000287956
Heightened Def Con from 0.000287956 ++++++++++++to 0.000287956
Heightened Def Con from 0.000287956 ++++++++++++to 0.000287956
Heightened Def Con from 0.000287956 ++++++++++++to 0.000287956
Heightened Def Con from 0.000287956 ++++++++++++to 0.000287956
Heightened Def Con from 0.000287956 ++++++++++++to 0.000287956
Heightened Def Con from 0.000287956 ++++++++++++to 0.000287956
Heightened Def Con from 0.000287956 ++++++++++++to 0.000287956
Heightened Def Con from 0.000287956 ++++++++++++to 0.000287956
Heightened Def Con from 0.000287956 ++++++++++++to 0.000287956
Heightened Def Con from 0.000287956 +++++++++++++to 0.000287956
Heightened Def Con from 0.000287956 +++++++++++++to 0.000287956
Heightened Def Con from 0.000287956 +++++++++++++to 0.000287956
Heightened Def Con from 0.000287956 +++++++++++++to 0.000287956
Heightened Def Con from 0.000287956 +++++++++++++to 0.000287956
Heightened Def Con from 0.000287956 +++++++++++++to 0.000287956
Heightened Def Con from 0.000287956 +++++++++++++to 0.000287956
Heightened Def Con from 0.000287956 +++++++++++++to 0.000287956
Heightened Def Con from 0.000287956 +++++++++++++to 0.000287956
Heightened Def Con from 0.000287956 +++++++++++++to 0.000287956
Heightened Def Con from 0.000287956 +++++++++++++to 0.000287956
Heightened Def Con from 0.000287956 +++++++++++++to 0.000287956
Heightened Def Con from 0.000287956 +++++++++to 0.000287956
Heightened Def Con from 0.000287956 to 0.000287958
Heightened Def Con from 0.000298419 ++++++++++++++++++++to 0.000298419
Heightened Def Con from 0.00031071 ++++++++++++++++++++to 0.000310711
Heightened Def Con from 0.000323007 ++++++++++++++++++++to 0.000323007
Heightened Def Con from 0.000323007 to 0.000323011
Heightened Def Con from 0.000347732 ++++++++++++++++++++to 0.000347733
Heightened Def Con from 0.000361931 to 0.000361935
Heightened Def Con from 0.000372292 ++++++++++++++++++to 0.000372293
Heightened Def Con from 0.000374164 ++to 0.000374164
Heightened Def Con from 0.000374164 +++to 0.000374164
Heightened Def Con from 0.000374164 +++to 0.000374164
Heightened Def Con from 0.000374164 +++to 0.000374164
Heightened Def Con from 0.000374164 ++++to 0.000374164
Heightened Def Con from 0.000374164 ++++to 0.000374164
Heightened Def Con from 0.000374164 ++++to 0.000374164
Heightened Def Con from 0.000374164 +++++to 0.000374164
Heightened Def Con from 0.000374164 +++++to 0.000374164
Heightened Def Con from 0.000374164 +++++to 0.000374164
Heightened Def Con from 0.000374164 ++++++to 0.000374164
Heightened Def Con from 0.000374164 ++++++to 0.000374164
Heightened Def Con from 0.000374164 ++++++to 0.000374164
Heightened Def Con from 0.000374164 ++++++to 0.000374164
Heightened Def Con from 0.000374164 ++++++to 0.000374164
Heightened Def Con from 0.000374164 ++++++to 0.000374164
Heightened Def Con from 0.000374164 ++++++to 0.000374164
Heightened Def Con from 0.000374164 ++++++to 0.000374164
Heightened Def Con from 0.000374164 +++++++to 0.000374164
Heightened Def Con from 0.000374164 +++++++to 0.000374164
Heightened Def Con from 0.000374164 +++++++to 0.000374164
Heightened Def Con from 0.000374164 ++++++++to 0.000374164
Heightened Def Con from 0.000374164 ++++++++to 0.000374164
Heightened Def Con from 0.000374164 ++++++++to 0.000374164
Heightened Def Con from 0.000374164 ++++++++to 0.000374164
Heightened Def Con from 0.000374164 ++++++++to 0.000374164
Heightened Def Con from 0.000374164 ++++++++to 0.000374164
Heightened Def Con from 0.000374164 ++++++++to 0.000374164
Heightened Def Con from 0.000374164 ++++++++to 0.000374164
Heightened Def Con from 0.000374164 ++++++++to 0.000374164
Heightened Def Con from 0.000374164 ++++++++to 0.000374164
Heightened Def Con from 0.000374164 ++++++++to 0.000374164
Heightened Def Con from 0.000374164 +++++++++to 0.000374164
Heightened Def Con from 0.000374164 +++++++++to 0.000374164
Heightened Def Con from 0.000374164 +++++++++to 0.000374164
Heightened Def Con from 0.000374164 +++++++++to 0.000374164
Heightened Def Con from 0.000374164 +++++++++to 0.000374164
Heightened Def Con from 0.000374164 +++++++++to 0.000374164
Heightened Def Con from 0.000374164 +++++++++to 0.000374164
Heightened Def Con from 0.000374164 +++++++++to 0.000374164
Heightened Def Con from 0.000374164 +++++++++to 0.000374164
Heightened Def Con from 0.000374164 +++++++++to 0.000374164
Heightened Def Con from 0.000374164 ++++++++++to 0.000374164
Heightened Def Con from 0.000374164 +++++++to 0.000374164
Total elapsed time: 145.521 seconds.

