LTspice 24.0.12 for Windows
Circuit: * C:\users\vito\Documents\facu\4y\1Q\tps\assd\tp1\spice\SallenGOD.asc
Start Time: Wed Apr  9 21:21:42 2025
solver = Normal
Maximum thread count: 8



Early termination of direct N-R iteration.
Direct Newton iteration failed to find .op point.  (Use ".option noopiter" to skip.)
Starting Gmin stepping
Gmin = 10
vernier = 0.5
vernier = 0.25
vernier = 0.125
Gmin = 5.5165
vernier = 0.0625
vernier = 0.03125
vernier = 0.015625
vernier = 0.0078125
Gmin = 5.48432
vernier = 0.00390625
vernier = 0.00195312
vernier = 0.000976562
vernier = 0.000488281
Gmin = 0
Gmin stepping failed

Starting source stepping with srcstepmethod=0
Source Step = 3.0303%
Source Step = 33.3333%
Source Step = 63.6364%
Source Step = 93.9394%
Source stepping succeeded in finding the operating point.

.step run=1



.step run=2



.step run=3



.step run=4



.step run=5



.step run=6



.step run=7



.step run=8



.step run=9



.step run=10



.step run=11



.step run=12



.step run=13



.step run=14



.step run=15



.step run=16



.step run=17



.step run=18



.step run=19



.step run=20



.step run=21



.step run=22



.step run=23



.step run=24



.step run=25



.step run=26



.step run=27



.step run=28



.step run=29



.step run=30



.step run=31



.step run=32



.step run=33



.step run=34



.step run=35



.step run=36



.step run=37



.step run=38



.step run=39



.step run=40



.step run=41



.step run=42



.step run=43



.step run=44



.step run=45



.step run=46



.step run=47



.step run=48



.step run=49
tnom = 27
temp = 27
method = modified trap
.step run=50
Total elapsed time: 30.427 seconds.

